<?xml version="1.0" encoding="UTF-8"?>

<!-- generated on 2026-02-09 23:27:43 by 
<configuration xmlns:xsi="http://www.w3.org/2001/XMLSchema-instance" xsi:noNamespaceSchemaLocation="http://sumo.dlr.de/xsd/Configuration.xsd">

    <input>
        <osm-files value="TRUE"/>
    </input>

    <output>
        <opendrive-output value="TRUE"/>
    </output>

    <projection>
        <proj value="+proj=tmerc"/>
    </projection>

    <processing>
        <geometry.remove value="true"/>
        <roundabouts.guess value="true"/>
        <edges.join value="true"/>
    </processing>

    <building_defaults>
        <default.lanewidth value="3.350000"/>
        <default.sidewalk-width value="2.800000"/>
    </building_defaults>

    <tls_building>
        <tls.group-signals value="true"/>
    </tls_building>

    <ramp_guessing>
        <ramps.guess value="true"/>
    </ramp_guessing>

    <edge_removal>
        <keep-edges.by-type value="highway.motorway,highway.motorway_link,highway.trunk,highway.trunk_link,highway.primary,highway.primary_link,highway.secondary,highway.secondary_link,highway.tertiary,highway.tertiary_link,highway.unclassified,highway.residential,"/>
    </edge_removal>

    <junctions>
        <junctions.join value="true"/>
    </junctions>

    <pedestrian>
        <sidewalks.guess value="true"/>
    </pedestrian>

    <formats>
        <osm.sidewalks value="true"/>
        <osm.crossings value="true"/>
    </formats>

    <report>
        <aggregate-warnings value="5"/>
    </report>

</configuration>
-->

<OpenDRIVE>
    <header revMajor="1" revMinor="4" name="" version="1.00" date="Mon Feb  9 23:27:43 2026" north="806.68" south="0.00" east="457.78" west="0.00">
        <geoReference>
 <![CDATA[
 +proj=tmerc
]]>
        </geoReference>
        <offset x="-1249235.78" y="-4618404.98" z="0.00" hdg="0"/>
    </header>
    <road name="Viale Ferrovia" length="29.02294764" id="320" junction="-1">
        <link>
            <predecessor elementType="junction" elementId="1"/>
            <successor elementType="junction" elementId="2"/>
        </link>
        <type s="0" type="town"/>
        <planView>
            <geometry s="0.00000000" x="297.19349686" y="370.45149875" hdg="-0.03438932" length="29.02294764">
                <line/>
            </geometry>
        </planView>
        <elevationProfile>
            <elevation s="0" a="0.00" b="0" c="0" d="0"/>
        </elevationProfile>
        <lateralProfile/>
        <lanes>
            <laneSection s="0">
                <center>
                    <lane id="0" type="none" level="true">
                        <link/>
                        <roadMark sOffset="0" type="solid" weight="standard" color="standard" width="0.13" laneChange="none"/>
                    </lane>
                </center>
                <right>
                    <lane id="-1" type="driving" level="true">
                        <link/>
                        <width sOffset="0" a="3.35" b="0" c="0" d="0"/>
                        <roadMark sOffset="0" type="solid" weight="standard" color="standard" width="0.13" laneChange="none"/>
                        <speed sOffset="0" max="13.89"/>
                    </lane>
                    <lane id="-2" type="sidewalk" level="true">
                        <link/>
                        <width sOffset="0" a="2.80" b="0" c="0" d="0"/>
                        <roadMark sOffset="0" type="solid" weight="standard" color="standard" width="0.13" laneChange="none"/>
                        <speed sOffset="0" max="13.89"/>
                    </lane>
                 </right>
            </laneSection>
        </lanes>
        <objects/>
    </road>
    <road name="Viale Ferrovia" length="82.17498979" id="321" junction="-1">
        <link>
            <predecessor elementType="junction" elementId="3"/>
            <successor elementType="junction" elementId="1"/>
        </link>
        <type s="0" type="town"/>
        <planView>
            <geometry s="0.00000000" x="199.77976986" y="373.93727775" hdg="-0.07944139" length="0.20000000">
                <line/>
            </geometry>
            <geometry s="0.20000000" x="199.97913910" y="373.92140617" hdg="-0.07944139" length="9.46510254">
                <paramPoly3 aU="0.00000000" bU="7.09840879" cU="7.09015198" dU="-4.72915442" aV="0.00000000" bV="0.00000000" cV="0.61679307" dV="-0.30495239" pRange="normalized"/>
            </geometry>
            <geometry s="9.66510254" x="209.43345930" y="373.48158510" hdg="-0.03452483" length="72.50988725">
                <line/>
            </geometry>
        </planView>
        <elevationProfile>
            <elevation s="0" a="0.00" b="0" c="0" d="0"/>
        </elevationProfile>
        <lateralProfile/>
        <lanes>
            <laneSection s="0">
                <center>
                    <lane id="0" type="none" level="true">
                        <link/>
                        <roadMark sOffset="0" type="solid" weight="standard" color="standard" width="0.13" laneChange="none"/>
                    </lane>
                </center>
                <right>
                    <lane id="-1" type="driving" level="true">
                        <link/>
                        <width sOffset="0" a="3.35" b="0" c="0" d="0"/>
                        <roadMark sOffset="0" type="solid" weight="standard" color="standard" width="0.13" laneChange="none"/>
                        <speed sOffset="0" max="13.89"/>
                    </lane>
                    <lane id="-2" type="sidewalk" level="true">
                        <link/>
                        <width sOffset="0" a="2.80" b="0" c="0" d="0"/>
                        <roadMark sOffset="0" type="solid" weight="standard" color="standard" width="0.13" laneChange="none"/>
                        <speed sOffset="0" max="13.89"/>
                    </lane>
                 </right>
            </laneSection>
        </lanes>
        <objects/>
    </road>
    <road name="Via San Francesco d&amp;apos;Assisi" length="325.56820785" id="322" junction="-1">
        <link>
            <predecessor elementType="junction" elementId="4"/>
            <successor elementType="junction" elementId="5"/>
        </link>
        <type s="0" type="town"/>
        <planView>
            <geometry s="0.00000000" x="345.56578272" y="499.73832305" hdg="1.55034328" length="0.20000000">
                <line/>
            </geometry>
            <geometry s="0.20000000" x="345.56987304" y="499.93828121" hdg="1.55034328" length="9.49953760">
                <paramPoly3 aU="0.00000000" bU="7.10264139" cU="6.67572952" dU="-4.57710686" aV="0.00000000" bV="-0.00000000" cV="4.43074851" dV="-2.18994274" pRange="normalized"/>
            </geometry>
            <geometry s="9.69953760" x="343.51771671" y="509.18344887" hdg="1.87887140" length="22.44749643">
                <line/>
            </geometry>
            <geometry s="32.14703403" x="336.71107679" y="530.57409517" hdg="1.87887140" length="13.88149011">
                <paramPoly3 aU="0.00000000" bU="10.41023520" cU="10.39705121" dU="-6.93665246" aV="-0.00000000" bV="0.00000000" cV="0.98052394" dV="-0.46223897" pRange="normalized"/>
            </geometry>
            <geometry s="46.02852414" x="332.01127156" y="543.63452917" hdg="1.93406926" length="12.70675305">
                <paramPoly3 aU="0.00000000" bU="9.52991772" cU="9.52446911" dU="-6.35024529" aV="-0.00000000" bV="0.00000000" cV="0.55814099" dV="-0.31039602" pRange="normalized"/>
            </geometry>
            <geometry s="58.73527719" x="327.26546258" y="555.42155115" hdg="1.95349289" length="13.88999987">
                <paramPoly3 aU="0.00000000" bU="10.41749989" cU="10.41750003" dU="-6.94500010" aV="-0.00000000" bV="0.00000000" cV="-0.00064834" dV="-0.00030490" pRange="normalized"/>
            </geometry>
            <geometry s="72.62527707" x="322.07949699" y="568.30711893" hdg="1.95328062" length="14.33741732">
                <line/>
            </geometry>
            <geometry s="86.96269438" x="316.72839443" y="581.60851873" hdg="1.95328062" length="13.88928010">
                <paramPoly3 aU="0.00000000" bU="10.41681833" cU="10.41681824" dU="-6.94545430" aV="-0.00000000" bV="-0.00000000" cV="-0.23834492" dV="0.07945870" pRange="normalized"/>
            </geometry>
            <geometry s="100.85197449" x="311.69236338" y="594.55244561" hdg="1.93040084" length="23.73286685">
                <line/>
            </geometry>
            <geometry s="124.58484134" x="303.34067103" y="616.76726508" hdg="1.93040084" length="10.45033086">
                <paramPoly3 aU="0.00000000" bU="7.83696404" cU="7.80814817" dU="-5.20865951" aV="-0.00000000" bV="0.00000000" cV="1.16367903" dV="-0.64597228" pRange="normalized"/>
            </geometry>
            <geometry s="135.03517220" x="299.18344869" y="626.35397815" hdg="1.98011418" length="28.59968440">
                <line/>
            </geometry>
            <geometry s="163.63485659" x="287.80124269" y="652.59111469" hdg="1.98011418" length="12.63424000">
                <paramPoly3 aU="0.00000000" bU="9.47135793" cU="9.31166663" dU="-6.22549691" aV="-0.00000000" bV="0.00000000" cV="3.00823209" dV="-1.67146857" pRange="normalized"/>
            </geometry>
            <geometry s="176.26909659" x="281.57721548" y="663.57928664" hdg="2.08611137" length="13.01536129">
                <paramPoly3 aU="0.00000000" bU="9.74159202" cU="9.98813883" dU="-6.74094151" aV="-0.00000000" bV="0.00000000" cV="2.17571333" dV="-2.17640275" pRange="normalized"/>
            </geometry>
            <geometry s="189.28445788" x="275.17682298" y="674.88165918" hdg="1.86065111" length="17.26859252">
                <line/>
            </geometry>
            <geometry s="206.55305040" x="270.24123350" y="691.42989910" hdg="1.86065111" length="13.84537610">
                <paramPoly3 aU="0.00000000" bU="10.37530535" cU="10.37496493" dU="-6.97256147" aV="-0.00000000" bV="0.00000000" cV="-1.87330325" dV="0.62947238" pRange="normalized"/>
            </geometry>
            <geometry s="220.39842650" x="267.49532916" y="704.98837928" hdg="1.68058226" length="27.97631438">
                <line/>
            </geometry>
            <geometry s="248.37474088" x="264.43008968" y="732.79626436" hdg="1.68058226" length="13.80929287">
                <paramPoly3 aU="0.00000000" bU="10.35144943" cU="10.16233043" dU="-6.79935633" aV="-0.00000000" bV="-0.00000000" cV="-3.42465355" dV="1.87290287" pRange="normalized"/>
            </geometry>
            <geometry s="262.18403375" x="264.46987019" y="746.59813961" hdg="1.56141868" length="0.84656878">
                <paramPoly3 aU="0.00000000" bU="0.63446416" cU="0.62864197" dU="-0.42191751" aV="0.00000000" bV="-0.00000000" cV="-0.16562885" dV="0.07598041" pRange="normalized"/>
            </geometry>
            <geometry s="263.03060253" x="264.56740295" y="747.43845057" hdg="1.39784975" length="13.86641692">
                <paramPoly3 aU="0.00000000" bU="10.39819001" cU="10.41948800" dU="-6.95350959" aV="0.00000000" bV="0.00000000" cV="0.52356194" dV="-0.57208969" pRange="normalized"/>
            </geometry>
            <geometry s="276.89701945" x="267.00103205" y="761.08744212" hdg="1.33345317" length="23.28840897">
                <line/>
            </geometry>
            <geometry s="300.18542843" x="272.47662838" y="783.72298579" hdg="1.33345317" length="3.59971190">
                <paramPoly3 aU="0.00000000" bU="2.69608771" cU="2.63643754" dU="-1.77954801" aV="0.00000000" bV="0.00000000" cV="-1.04806656" dV="0.50142044" pRange="normalized"/>
            </geometry>
            <geometry s="303.78514033" x="273.84332978" y="787.04783111" hdg="1.11212060" length="11.73400932">
                <paramPoly3 aU="0.00000000" bU="8.79874778" cU="8.80285745" dU="-5.87253512" aV="0.00000000" bV="0.00000000" cV="-1.19729658" dV="0.95062303" pRange="normalized"/>
            </geometry>
            <geometry s="315.51914965" x="279.25768303" y="797.45536263" hdg="1.16411460" length="10.04905820">
                <line/>
            </geometry>
        </planView>
        <elevationProfile>
            <elevation s="0" a="0.00" b="0" c="0" d="0"/>
        </elevationProfile>
        <lateralProfile/>
        <lanes>
            <laneSection s="0">
                <center>
                    <lane id="0" type="none" level="true">
                        <link/>
                        <roadMark sOffset="0" type="solid" weight="standard" color="standard" width="0.13" laneChange="none"/>
                    </lane>
                </center>
                <right>
                    <lane id="-1" type="driving" level="true">
                        <link/>
                        <width sOffset="0" a="3.35" b="0" c="0" d="0"/>
                        <roadMark sOffset="0" type="solid" weight="standard" color="standard" width="0.13" laneChange="none"/>
                        <speed sOffset="0" max="13.89"/>
                    </lane>
                    <lane id="-2" type="sidewalk" level="true">
                        <link/>
                        <width sOffset="0" a="2.80" b="0" c="0" d="0"/>
                        <roadMark sOffset="0" type="solid" weight="standard" color="standard" width="0.13" laneChange="none"/>
                        <speed sOffset="0" max="13.89"/>
                    </lane>
                 </right>
            </laneSection>
        </lanes>
        <objects/>
    </road>
    <road name="Via San Francesco d&amp;apos;Assisi" length="14.57923169" id="323" junction="-1">
        <link>
            <predecessor elementType="junction" elementId="6"/>
            <successor elementType="junction" elementId="4"/>
        </link>
        <type s="0" type="town"/>
        <planView>
            <geometry s="0.00000000" x="344.06349407" y="469.65174894" hdg="1.51096641" length="14.57923169">
                <line/>
            </geometry>
        </planView>
        <elevationProfile>
            <elevation s="0" a="0.00" b="0" c="0" d="0"/>
        </elevationProfile>
        <lateralProfile/>
        <lanes>
            <laneSection s="0">
                <center>
                    <lane id="0" type="none" level="true">
                        <link/>
                        <roadMark sOffset="0" type="solid" weight="standard" color="standard" width="0.13" laneChange="none"/>
                    </lane>
                </center>
                <right>
                    <lane id="-1" type="driving" level="true">
                        <link/>
                        <width sOffset="0" a="3.35" b="0" c="0" d="0"/>
                        <roadMark sOffset="0" type="solid" weight="standard" color="standard" width="0.13" laneChange="none"/>
                        <speed sOffset="0" max="13.89"/>
                    </lane>
                    <lane id="-2" type="sidewalk" level="true">
                        <link/>
                        <width sOffset="0" a="2.80" b="0" c="0" d="0"/>
                        <roadMark sOffset="0" type="solid" weight="standard" color="standard" width="0.13" laneChange="none"/>
                        <speed sOffset="0" max="13.89"/>
                    </lane>
                 </right>
            </laneSection>
        </lanes>
        <objects/>
    </road>
    <road name="Via San Francesco d&amp;apos;Assisi" length="77.97390625" id="324" junction="-1">
        <link>
            <predecessor elementType="junction" elementId="2"/>
            <successor elementType="junction" elementId="6"/>
        </link>
        <type s="0" type="town"/>
        <planView>
            <geometry s="0.00000000" x="335.65699781" y="376.49864851" hdg="1.49047688" length="16.76168380">
                <line/>
            </geometry>
            <geometry s="16.76168380" x="337.00183985" y="393.20629478" hdg="1.49047688" length="13.88955787">
                <paramPoly3 aU="0.00000000" bU="10.41713027" cU="10.41628541" dU="-6.94440161" aV="0.00000000" bV="-0.00000000" cV="-0.23613015" dV="0.11910978" pRange="normalized"/>
            </geometry>
            <geometry s="30.65124167" x="338.23284177" y="407.04114351" hdg="1.47944378" length="6.22676879">
                <paramPoly3 aU="0.00000000" bU="4.67007015" cU="4.66983376" dU="-3.11324907" aV="0.00000000" bV="0.00000000" cV="-0.08138634" dV="0.04516375" pRange="normalized"/>
            </geometry>
            <geometry s="36.87801046" x="338.83694328" y="413.23853037" hdg="1.47360199" length="13.88999999">
                <paramPoly3 aU="0.00000000" bU="10.41749999" cU="10.41750000" dU="-6.94500001" aV="0.00000000" bV="0.00000000" cV="0.00002641" dV="-0.00017906" pRange="normalized"/>
            </geometry>
            <geometry s="50.76801045" x="340.18500004" y="427.06295957" hdg="1.47355549" length="27.20589579">
                <line/>
            </geometry>
        </planView>
        <elevationProfile>
            <elevation s="0" a="0.00" b="0" c="0" d="0"/>
        </elevationProfile>
        <lateralProfile/>
        <lanes>
            <laneSection s="0">
                <center>
                    <lane id="0" type="none" level="true">
                        <link/>
                        <roadMark sOffset="0" type="solid" weight="standard" color="standard" width="0.13" laneChange="none"/>
                    </lane>
                </center>
                <right>
                    <lane id="-1" type="driving" level="true">
                        <link/>
                        <width sOffset="0" a="3.35" b="0" c="0" d="0"/>
                        <roadMark sOffset="0" type="solid" weight="standard" color="standard" width="0.13" laneChange="none"/>
                        <speed sOffset="0" max="13.89"/>
                    </lane>
                    <lane id="-2" type="sidewalk" level="true">
                        <link/>
                        <width sOffset="0" a="2.80" b="0" c="0" d="0"/>
                        <roadMark sOffset="0" type="solid" weight="standard" color="standard" width="0.13" laneChange="none"/>
                        <speed sOffset="0" max="13.89"/>
                    </lane>
                 </right>
            </laneSection>
        </lanes>
        <objects/>
    </road>
    <road name="Via Fratelli Rosselli" length="71.02565734" id="325" junction="-1">
        <link>
            <predecessor elementType="junction" elementId="7"/>
            <successor elementType="junction" elementId="8"/>
        </link>
        <type s="0" type="town"/>
        <planView>
            <geometry s="0.00000000" x="310.27088914" y="265.32963859" hdg="-1.25954735" length="71.02565734">
                <line/>
            </geometry>
        </planView>
        <elevationProfile>
            <elevation s="0" a="0.00" b="0" c="0" d="0"/>
        </elevationProfile>
        <lateralProfile/>
        <lanes>
            <laneSection s="0">
                <center>
                    <lane id="0" type="none" level="true">
                        <link/>
                        <roadMark sOffset="0" type="solid" weight="standard" color="standard" width="0.13" laneChange="none"/>
                    </lane>
                </center>
                <right>
                    <lane id="-1" type="driving" level="true">
                        <link/>
                        <width sOffset="0" a="3.35" b="0" c="0" d="0"/>
                        <roadMark sOffset="0" type="solid" weight="standard" color="standard" width="0.13" laneChange="none"/>
                        <speed sOffset="0" max="13.89"/>
                    </lane>
                    <lane id="-2" type="sidewalk" level="true">
                        <link/>
                        <width sOffset="0" a="2.80" b="0" c="0" d="0"/>
                        <roadMark sOffset="0" type="solid" weight="standard" color="standard" width="0.13" laneChange="none"/>
                        <speed sOffset="0" max="13.89"/>
                    </lane>
                 </right>
            </laneSection>
        </lanes>
        <objects/>
    </road>
    <road name="Via Fratelli Rosselli" length="58.29023699" id="326" junction="-1">
        <link>
            <predecessor elementType="junction" elementId="9"/>
            <successor elementType="junction" elementId="7"/>
        </link>
        <type s="0" type="town"/>
        <planView>
            <geometry s="0.00000000" x="290.36971045" y="330.09645596" hdg="-1.27333691" length="58.29023699">
                <line/>
            </geometry>
        </planView>
        <elevationProfile>
            <elevation s="0" a="0.00" b="0" c="0" d="0"/>
        </elevationProfile>
        <lateralProfile/>
        <lanes>
            <laneSection s="0">
                <center>
                    <lane id="0" type="none" level="true">
                        <link/>
                        <roadMark sOffset="0" type="solid" weight="standard" color="standard" width="0.13" laneChange="none"/>
                    </lane>
                </center>
                <right>
                    <lane id="-1" type="driving" level="true">
                        <link/>
                        <width sOffset="0" a="3.35" b="0" c="0" d="0"/>
                        <roadMark sOffset="0" type="solid" weight="standard" color="standard" width="0.13" laneChange="none"/>
                        <speed sOffset="0" max="13.89"/>
                    </lane>
                    <lane id="-2" type="sidewalk" level="true">
                        <link/>
                        <width sOffset="0" a="2.80" b="0" c="0" d="0"/>
                        <roadMark sOffset="0" type="solid" weight="standard" color="standard" width="0.13" laneChange="none"/>
                        <speed sOffset="0" max="13.89"/>
                    </lane>
                 </right>
            </laneSection>
        </lanes>
        <objects/>
    </road>
    <road name="Via Fratelli Rosselli" length="21.48946094" id="327" junction="-1">
        <link>
            <predecessor elementType="junction" elementId="1"/>
            <successor elementType="junction" elementId="9"/>
        </link>
        <type s="0" type="town"/>
        <planView>
            <geometry s="0.00000000" x="289.24051093" y="362.92936773" hdg="-1.62833930" length="21.48946094">
                <line/>
            </geometry>
        </planView>
        <elevationProfile>
            <elevation s="0" a="0.00" b="0" c="0" d="0"/>
        </elevationProfile>
        <lateralProfile/>
        <lanes>
            <laneSection s="0">
                <center>
                    <lane id="0" type="none" level="true">
                        <link/>
                        <roadMark sOffset="0" type="solid" weight="standard" color="standard" width="0.13" laneChange="none"/>
                    </lane>
                </center>
                <right>
                    <lane id="-1" type="driving" level="true">
                        <link/>
                        <width sOffset="0" a="3.35" b="0" c="0" d="0"/>
                        <roadMark sOffset="0" type="solid" weight="standard" color="standard" width="0.13" laneChange="none"/>
                        <speed sOffset="0" max="13.89"/>
                    </lane>
                    <lane id="-2" type="sidewalk" level="true">
                        <link/>
                        <width sOffset="0" a="2.80" b="0" c="0" d="0"/>
                        <roadMark sOffset="0" type="solid" weight="standard" color="standard" width="0.13" laneChange="none"/>
                        <speed sOffset="0" max="13.89"/>
                    </lane>
                 </right>
            </laneSection>
        </lanes>
        <objects/>
    </road>
    <road name="Via Cutinelli" length="72.06996989" id="328" junction="-1">
        <link>
            <predecessor elementType="junction" elementId="10"/>
            <successor elementType="junction" elementId="11"/>
        </link>
        <type s="0" type="town"/>
        <planView>
            <geometry s="0.00000000" x="378.75217323" y="213.43429356" hdg="0.55463325" length="18.31373491">
                <line/>
            </geometry>
            <geometry s="18.31373491" x="394.32056279" y="223.07888442" hdg="0.55463325" length="8.31631443">
                <paramPoly3 aU="0.00000000" bU="6.23103318" cU="6.28356275" dU="-4.20885272" aV="0.00000000" bV="0.00000000" cV="-1.44512441" dV="1.24960224" pRange="normalized"/>
            </geometry>
            <geometry s="26.63004934" x="401.48419040" y="227.28673880" hdg="0.69286042" length="17.76131147">
                <paramPoly3 aU="0.00000000" bU="13.31812971" cU="13.19019565" dU="-8.80130527" aV="0.00000000" bV="-0.00000000" cV="3.22301785" dV="-1.88493379" pRange="normalized"/>
            </geometry>
            <geometry s="44.39136082" x="414.25367431" y="239.62648395" hdg="0.75230574" length="17.94185008">
                <paramPoly3 aU="0.00000000" bU="13.45543363" cU="13.46572561" dU="-8.98282497" aV="0.00000000" bV="0.00000000" cV="-0.17458927" dV="-0.10915154" pRange="normalized"/>
            </geometry>
            <geometry s="62.33321090" x="427.54461252" y="251.67701534" hdg="0.70199754" length="9.73675899">
                <line/>
            </geometry>
        </planView>
        <elevationProfile>
            <elevation s="0" a="0.00" b="0" c="0" d="0"/>
        </elevationProfile>
        <lateralProfile/>
        <lanes>
            <laneSection s="0">
                <center>
                    <lane id="0" type="none" level="true">
                        <link/>
                        <roadMark sOffset="0" type="solid" weight="standard" color="standard" width="0.13" laneChange="none"/>
                    </lane>
                </center>
                <right>
                    <lane id="-1" type="driving" level="true">
                        <link/>
                        <width sOffset="0" a="3.35" b="0" c="0" d="0"/>
                        <roadMark sOffset="0" type="solid" weight="standard" color="standard" width="0.13" laneChange="none"/>
                        <speed sOffset="0" max="22.22"/>
                    </lane>
                    <lane id="-2" type="sidewalk" level="true">
                        <link/>
                        <width sOffset="0" a="2.80" b="0" c="0" d="0"/>
                        <roadMark sOffset="0" type="solid" weight="standard" color="standard" width="0.13" laneChange="none"/>
                        <speed sOffset="0" max="22.22"/>
                    </lane>
                 </right>
            </laneSection>
        </lanes>
        <objects/>
    </road>
    <road name="Via Cutinelli" length="25.56844431" id="329" junction="-1">
        <link>
            <predecessor elementType="junction" elementId="8"/>
            <successor elementType="junction" elementId="10"/>
        </link>
        <type s="0" type="town"/>
        <planView>
            <geometry s="0.00000000" x="342.52041145" y="193.42186515" hdg="0.48289267" length="8.80526807">
                <line/>
            </geometry>
            <geometry s="8.80526807" x="350.31884501" y="197.51052993" hdg="0.48289267" length="16.56317624">
                <paramPoly3 aU="0.00000000" bU="12.42224322" cU="12.42366344" dU="-8.28327817" aV="0.00000000" bV="0.00000000" cV="0.07914156" dV="0.03043515" pRange="normalized"/>
            </geometry>
            <geometry s="25.36844431" x="364.93674586" y="205.29831810" hdg="0.50298609" length="0.20000000">
                <line/>
            </geometry>
        </planView>
        <elevationProfile>
            <elevation s="0" a="0.00" b="0" c="0" d="0"/>
        </elevationProfile>
        <lateralProfile/>
        <lanes>
            <laneSection s="0">
                <center>
                    <lane id="0" type="none" level="true">
                        <link/>
                        <roadMark sOffset="0" type="solid" weight="standard" color="standard" width="0.13" laneChange="none"/>
                    </lane>
                </center>
                <right>
                    <lane id="-1" type="driving" level="true">
                        <link/>
                        <width sOffset="0" a="3.35" b="0" c="0" d="0"/>
                        <roadMark sOffset="0" type="solid" weight="standard" color="standard" width="0.13" laneChange="none"/>
                        <speed sOffset="0" max="22.22"/>
                    </lane>
                    <lane id="-2" type="sidewalk" level="true">
                        <link/>
                        <width sOffset="0" a="2.80" b="0" c="0" d="0"/>
                        <roadMark sOffset="0" type="solid" weight="standard" color="standard" width="0.13" laneChange="none"/>
                        <speed sOffset="0" max="22.22"/>
                    </lane>
                 </right>
            </laneSection>
        </lanes>
        <objects/>
    </road>
    <road name="Via Cutinelli" length="23.74527717" id="330" junction="-1">
        <link>
            <predecessor elementType="junction" elementId="12"/>
            <successor elementType="junction" elementId="8"/>
        </link>
        <type s="0" type="town"/>
        <planView>
            <geometry s="0.00000000" x="308.31612682" y="174.52117784" hdg="0.51120383" length="23.74527717">
                <line/>
            </geometry>
        </planView>
        <elevationProfile>
            <elevation s="0" a="0.00" b="0" c="0" d="0"/>
        </elevationProfile>
        <lateralProfile/>
        <lanes>
            <laneSection s="0">
                <center>
                    <lane id="0" type="none" level="true">
                        <link/>